ADAP_NORM= 2.0
SOLVER= EULER
MATH_PROBLEM= DIRECT
RESTART_SOL= YES
MACH_NUMBER= 1.7
FREESTREAM_OPTION= DENSITY_FS
FREESTREAM_PRESSURE= 1499900
FREESTREAM_DENSITY= 202.8
FLUID_MODEL= VW_GAS
GAMMA_VALUE= 1.0125
GAS_CONSTANT= 35.152
CRITICAL_TEMPERATURE= 564.09
CRITICAL_PRESSURE= 1415000
ACENTRIC_FACTOR= 0.528
MARKER_EULER= ( 4, 5 )
MARKER_RIEMANN= (1, STATIC_SUPERSONIC_INFLOW_PD, 1499900, 202.8, 1.7, 0.0, 0.0, 3, STATIC_PRESSURE, 4e5, 0.0, 0.0, 0.0, 0.0)
MARKER_SYM= ( 2 )
NUM_METHOD_GRAD= WEIGHTED_LEAST_SQUARES
CFL_NUMBER= 0.1
CFL_ADAPT= YES
CFL_ADAPT_PARAM= ( 0.1, 2.0, 0.1, 100 )
ITER= 1000
LINEAR_SOLVER= FGMRES
LINEAR_SOLVER_PREC= ILU
LINEAR_SOLVER_ERROR= 1E-6
LINEAR_SOLVER_ITER= 20
CONV_NUM_METHOD_FLOW= ROE
MUSCL_FLOW= NO
SLOPE_LIMITER_FLOW= VENKATAKRISHNAN
VENKAT_LIMITER_COEFF= 0.001
TIME_DISCRE_FLOW= EULER_IMPLICIT
CONV_FIELD= RMS_DENSITY
CONV_RESIDUAL_MINVAL= -11
CONV_STARTITER= 10
CONV_CAUCHY_ELEMS= 100
CONV_CAUCHY_EPS= 1E-10
MESH_FILENAME= adap.su2
MESH_FORMAT= SU2
MESH_OUT_FILENAME= mesh_out.su2
SOLUTION_FILENAME= flo_ini.dat
SOLUTION_ADJ_FILENAME= solution_adj.dat
TABULAR_FORMAT= CSV
CONV_FILENAME= history
RESTART_FILENAME= flo.dat
RESTART_ADJ_FILENAME= restart_adj.dat
VOLUME_FILENAME= flow
VOLUME_ADJ_FILENAME= adjoint
GRAD_OBJFUNC_FILENAME= of_grad.dat
SURFACE_FILENAME= surface_flow
SURFACE_ADJ_FILENAME= surface_adjoint
OUTPUT_WRT_FREQ= 100
SCREEN_WRT_FREQ_INNER= 1
SCREEN_OUTPUT= (INNER_ITER, WALL_TIME, RMS_DENSITY)
DV_VALUE_NEW= 0
DV_VALUE_OLD= 0
OPT_ITERATIONS= 100
OPT_ACCURACY= 1e-10
OPT_RELAX_FACTOR= 1.0
OPT_GRADIENT_FACTOR= 1.0
OPT_BOUND_UPPER= 10000000000.0
OPT_BOUND_LOWER= -10000000000.0
OPT_COMBINE_OBJECTIVE= NO
OPT_CONSTRAINT= NONE
VALUE_OBJFUNC_FILENAME= of_eval.dat
BREAKDOWN_FILENAME= forces_breakdown.dat
AOA= 0.0
SIDESLIP_ANGLE= 0.0
REYNOLDS_NUMBER= 0.0
TARGET_CL= 0.0
FREESTREAM_TEMPERATURE= 288.15
MARKER_OUTLET= (NONE)
MULTIPOINT_WEIGHT= (1.0)
MULTIPOINT_MACH_NUMBER= (1.7)
MULTIPOINT_AOA= (0.0)
MULTIPOINT_SIDESLIP_ANGLE= (0.0)
MULTIPOINT_REYNOLDS_NUMBER= (0.0)
MULTIPOINT_TARGET_CL= (0.0)
MULTIPOINT_FREESTREAM_PRESSURE= (1499900)
MULTIPOINT_FREESTREAM_TEMPERATURE= (288.15)
MULTIPOINT_OUTLET_VALUE= (0.0)
MULTIPOINT_MESH_FILENAME= (mesh.su2)
HISTORY_OUTPUT= ITER, RMS_RES, AERO_COEFF, FLOW_COEFF
OBJECTIVE_FUNCTION= DRAG
DV_KIND= FFD_SETTING
DV_PARAM= ( 1, 0.5) 
DEFINITION_DV= ( 30 , 1.0 | WING  | 0.0 , 0.05  )
NUMBER_PART= 6
VOLUME_OUTPUT= COORDINATES, SOLUTION, PRIMITIVE
COMPUTE_METRIC= NO
DV_VALUE= 0
